12

 C                 -0.23796467    0.91722241    0.00622131
 C                  1.16343526    0.91715229    0.00665032
 C                  1.86419619    2.13076498    0.00608514
 C                  1.16355718    3.34444779    0.00509017
 C                 -0.23784275    3.34451790    0.00466321
 C                 -0.93860368    2.13090521    0.00522813
 H                 -0.77301119   -0.00939782    0.00665182
 H                  1.69838869   -0.00952147    0.00740889
 H                  2.93419614    2.13071145    0.00641226
 H                  1.69860370    4.27106801    0.00465713
 H                 -0.77279618    4.27119166    0.00390604
 H                 -2.00860363    2.13095875    0.00490196

