13
 generated by VMD
 C        -1.504870        0.047264       -1.212407
 C        -1.504891        0.047277        0.193134
 C        -0.275704        0.047277       -1.870409
 C         0.899189       -0.019520       -1.145488
 C         0.891372       -0.088746        0.214947
 C        -0.320473       -0.026728        0.894342
 H        -2.437737        0.072131       -1.778802
 H        -0.209797        0.056045       -2.952026
 H         1.834715       -0.130726        0.764247
 Cl       -0.275056       -0.053269        2.599568
 H        -2.453270        0.135835        0.743326
 O         2.159039       -0.034473       -1.823176
 H         1.952516        0.073510       -2.782706
