13
Properties=species:S:1:pos:R:3 pbc="F F F"
C       -0.65090031       1.20448167       0.04302717
C       -1.35537675       0.00611147      -0.02547364
C        0.74264826       1.13249974       0.09549900
C        1.40196457      -0.10093062       0.07955331
C        0.65600848      -1.28347196       0.00995577
C       -0.73643844      -1.24134349      -0.04348820
H       -1.16254594       2.15265349       0.05509597
H        1.32069480       2.04154521       0.14918212
H        1.17223209      -2.22964449      -0.00186483
H       -1.29667651      -2.16028341      -0.09680492
Cl      -3.06925003       0.07079753      -0.09081727
O        2.76579593      -0.21098735       0.12955942
H        3.17176081       0.66447377       0.17531911
